Version 4
SHEET 1 1412 680
WIRE 512 -112 512 -144
WIRE 1216 -112 512 -112
WIRE -256 -48 -256 -80
WIRE -208 -48 -256 -48
WIRE -80 -48 -128 -48
WIRE -48 -48 -80 -48
WIRE 128 -48 96 -48
WIRE 240 -48 208 -48
WIRE 512 -32 512 -112
WIRE -256 -16 -256 -48
WIRE -80 -16 -80 -48
WIRE 1040 16 1040 -48
WIRE 512 64 512 48
WIRE -80 80 -80 48
WIRE -48 80 -48 -48
WIRE -16 80 -48 80
WIRE 80 80 64 80
WIRE 96 80 96 -48
WIRE 96 80 80 80
WIRE -256 96 -256 64
WIRE 160 96 160 64
WIRE 1216 96 1216 -112
WIRE 128 112 96 112
WIRE 240 128 240 -48
WIRE 240 128 192 128
WIRE 336 128 240 128
WIRE 80 144 80 80
WIRE 128 144 80 144
WIRE 1040 144 1040 96
WIRE 1152 144 1040 144
WIRE -80 176 -80 144
WIRE -80 176 -128 176
WIRE -16 176 -80 176
WIRE 96 176 96 112
WIRE 96 176 64 176
WIRE 160 176 160 160
WIRE 1040 208 1040 144
WIRE -80 224 -80 176
WIRE 1216 224 1216 192
WIRE 96 240 96 176
WIRE -432 256 -432 240
WIRE -368 256 -432 256
WIRE -128 256 -128 176
WIRE -128 256 -288 256
WIRE 1040 304 1040 272
WIRE 1216 320 1216 304
WIRE -80 336 -80 288
WIRE 96 336 96 320
FLAG 96 336 0
FLAG 160 176 0
FLAG 336 128 Out
FLAG 512 64 0
FLAG 160 64 VCC
FLAG -80 336 0
FLAG -256 96 0
FLAG -432 240 PWR
FLAG -80 80 0
FLAG 1216 320 0
FLAG 1040 304 0
FLAG 1040 -48 Out
FLAG -256 -80 Meas_Volt
FLAG 512 -144 PWR
FLAG -80 144 VCC
SYMBOL res 224 -64 R90
WINDOW 0 0 56 VBottom 0
WINDOW 3 32 56 VTop 0
SYMATTR InstName R1
SYMATTR Value 15k
SYMATTR SpiceLine tol=5%
SYMBOL res 80 64 R90
WINDOW 0 0 56 VBottom 0
WINDOW 3 32 56 VTop 0
SYMATTR InstName R2
SYMATTR Value 1k
SYMATTR SpiceLine tol=5%
SYMBOL res 80 160 R90
WINDOW 0 0 56 VBottom 0
WINDOW 3 32 56 VTop 0
SYMATTR InstName R3
SYMATTR Value 1k
SYMATTR SpiceLine tol=5%
SYMBOL res 80 224 R0
SYMATTR InstName R4
SYMATTR Value 10k
SYMATTR SpiceLine tol=5%
SYMBOL voltage 512 -48 R0
WINDOW 123 0 0 Left 0
WINDOW 39 0 0 Left 0
SYMATTR InstName V1
SYMATTR Value PWL(1 14 3.77 14 3.78 37 13.43 37 13.44 14)
SYMBOL voltage -256 -32 R0
WINDOW 123 0 0 Left 0
WINDOW 39 0 0 Left 0
WINDOW 3 24 104 Invisible 0
SYMATTR Value PWL(1 5 2 7 3 9 4 12 5 14 6 17 7 15 8 13 9 12 10 11 11 10 12 7 13 5 14 4)
SYMATTR InstName V3
SYMBOL zener -64 288 R180
WINDOW 0 24 72 Left 0
WINDOW 3 24 0 Left 0
SYMATTR InstName D1
SYMATTR Value BZX84C12L
SYMBOL res -272 240 R90
WINDOW 0 0 56 VBottom 0
WINDOW 3 32 56 VTop 0
SYMATTR InstName R5
SYMATTR Value 2k2
SYMATTR SpiceLine tol=5%
SYMBOL zener -64 48 R180
WINDOW 0 24 72 Left 0
WINDOW 3 24 0 Left 0
SYMATTR InstName D2
SYMATTR Value BZX84C12L
SYMBOL res -112 -64 R90
WINDOW 0 0 56 VBottom 0
WINDOW 3 32 56 VTop 0
SYMATTR InstName R6
SYMATTR Value 1k
SYMATTR SpiceLine tol=5%
SYMBOL npn 1152 96 R0
SYMATTR InstName Q1
SYMATTR Value BC847B
SYMBOL res 1200 208 R0
SYMATTR InstName R8
SYMATTR Value 1k
SYMATTR SpiceLine tol=5%
SYMBOL zener 1056 272 R180
WINDOW 0 24 72 Left 0
WINDOW 3 24 0 Left 0
SYMATTR InstName D4
SYMATTR Value BZX84C12L
SYMBOL res 1024 0 R0
SYMATTR InstName R9
SYMATTR Value 2k2
SYMATTR SpiceLine tol=5%
SYMBOL myLib\\lm358 160 64 R0
SYMATTR InstName U1
TEXT -224 360 Left 0 !.tran 0 20 1m 100m
