Version 4
SHEET 1 1268 680
WIRE 800 -64 752 -64
WIRE 144 -48 96 -48
WIRE 752 -32 752 -64
WIRE 800 -32 800 -64
WIRE 144 -16 144 -48
WIRE 304 -16 192 -16
WIRE 96 0 96 -48
WIRE 304 16 304 -16
WIRE 800 96 800 48
WIRE 192 112 192 -16
WIRE 304 112 304 96
WIRE -192 128 -192 32
WIRE 96 128 96 80
WIRE 96 128 -192 128
WIRE 160 128 96 128
WIRE 544 144 544 96
WIRE 544 144 224 144
WIRE 576 144 544 144
WIRE 672 144 656 144
WIRE 736 144 672 144
WIRE -16 160 -224 160
WIRE 160 160 -16 160
WIRE 848 192 800 192
WIRE 912 192 848 192
WIRE 1040 192 992 192
WIRE -224 208 -224 160
WIRE 192 208 192 176
WIRE -16 224 -16 160
WIRE 672 224 672 144
WIRE 688 224 672 224
WIRE 848 224 848 192
WIRE 848 224 768 224
WIRE 1040 224 1040 192
WIRE -16 352 -16 304
FLAG 304 112 0
FLAG 192 208 0
FLAG 544 96 Output
FLAG 144 -16 0
FLAG -16 352 0
FLAG -192 32 From_Current_Measure_Circuit
FLAG -224 208 Threshold_Adjustment
FLAG 1040 224 0
FLAG 752 -32 0
SYMBOL myLib\\lm358 192 80 R0
SYMATTR InstName U1
SYMBOL voltage 304 0 R0
WINDOW 123 0 0 Left 0
WINDOW 39 0 0 Left 0
SYMATTR InstName V1
SYMATTR Value 12
SYMBOL voltage 96 96 R180
WINDOW 0 24 104 Left 0
WINDOW 3 24 16 Left 0
WINDOW 123 0 0 Left 0
WINDOW 39 0 0 Left 0
SYMATTR InstName V2
SYMATTR Value 2
SYMBOL voltage -16 208 R0
WINDOW 123 0 0 Left 0
WINDOW 39 0 0 Left 0
SYMATTR InstName V3
SYMATTR Value PWL(0.1 2.0 0.2 1.0 0.35 2.0 0.4 1.0 0.5 1.5 0.6 1.0 0.7 1.5 0.8 1.0 0.9 1.5 1.0 1.0 1.1 1.5 1.2 1.0 1.3 1.5)
SYMBOL pnp 736 96 R0
SYMATTR InstName Q1
SYMATTR Value BC557C
SYMBOL res 672 128 R90
WINDOW 0 0 56 VBottom 0
WINDOW 3 32 56 VTop 0
SYMATTR InstName R1
SYMATTR Value 1k
SYMBOL voltage 896 192 R270
WINDOW 0 32 56 VTop 0
WINDOW 3 -32 56 VBottom 0
WINDOW 123 0 0 Left 0
WINDOW 39 0 0 Left 0
SYMATTR InstName V4
SYMATTR Value 12
SYMBOL res 784 208 R90
WINDOW 0 0 56 VBottom 0
WINDOW 3 32 56 VTop 0
SYMATTR InstName R2
SYMATTR Value 100k
SYMBOL res 784 -48 R0
SYMATTR InstName R3
SYMATTR Value 1k
TEXT -48 376 Left 0 !.tran 0 2 1 1m
